/*--------------------------------*- C++ -*----------------------------------*\
  =========                 |
  \\      /  F ield         | OpenFOAM: The Open Source CFD Toolbox
   \\    /   O peration     | Website:  https://openfoam.org
    \\  /    A nd           | Version:  10
     \\/     M anipulation  |
\*---------------------------------------------------------------------------*/
FoamFile
{
    format      ascii;
    class       volScalarField;
    location    "0";
    object      p;
}
// * * * * * * * * * * * * * * * * * * * * * * * * * * * * * * * * * * * * * //

dimensions      [1 -1 -2 0 0 0 0];

internalField   uniform 101325;

boundaryField
{
    inlet
    {
        type            waveTransmissive;
        field           p;
        psi             thermo:psi;
        gamma           1.4;
        fieldInf        101325;
        lInf            3;
        value           uniform 101325;         
    }
    injector
    {
        type            waveTransmissive;
        field           p;
        psi             thermo:psi;
        gamma           1.4;
        fieldInf        101325;
        lInf            3;
        value           uniform 101325;         
    }
    outlet
    {
        type            outletInlet;
        outletValue     uniform 101325;
        value           uniform 101325;
    }
    wall
    {
        type            zeroGradient;
    }
}


// ************************************************************************* //
